Version 4
SHEET 1 1356 680
WIRE 400 -432 240 -432
WIRE 400 -368 400 -432
WIRE 240 -256 240 -432
WIRE 240 -256 160 -256
WIRE 336 -256 240 -256
WIRE 400 -256 400 -288
WIRE 160 -192 160 -256
WIRE 160 -192 144 -192
WIRE 336 -192 336 -256
WIRE 352 -192 336 -192
WIRE 160 -176 160 -192
WIRE 336 -176 336 -192
WIRE 144 -128 144 -192
WIRE 160 -128 144 -128
WIRE 352 -128 352 -192
WIRE 352 -128 336 -128
WIRE 256 -96 208 -96
WIRE 288 -96 256 -96
WIRE 256 -64 256 -96
WIRE 336 -64 336 -80
WIRE 336 -64 256 -64
WIRE 160 -32 160 -80
WIRE 160 -32 144 -32
WIRE 336 -32 336 -64
WIRE 352 -32 336 -32
WIRE 160 -16 160 -32
WIRE 336 -16 336 -32
WIRE 144 32 144 -32
WIRE 160 32 144 32
WIRE 352 32 352 -32
WIRE 352 32 336 32
WIRE 256 64 208 64
WIRE 288 64 256 64
WIRE 256 96 256 64
WIRE 336 96 336 80
WIRE 336 96 256 96
WIRE 160 144 160 80
WIRE 224 144 160 144
WIRE 160 176 160 144
WIRE 336 176 336 96
WIRE 160 224 144 224
WIRE 352 224 336 224
WIRE 224 256 224 144
WIRE 224 256 208 256
WIRE 288 256 224 256
WIRE 144 288 144 224
WIRE 160 288 160 272
WIRE 160 288 144 288
WIRE 336 288 336 272
WIRE 352 288 352 224
WIRE 352 288 336 288
WIRE 160 304 160 288
WIRE 224 304 160 304
WIRE 160 336 160 304
WIRE 336 336 336 288
WIRE 160 384 144 384
WIRE 352 384 336 384
WIRE 224 416 224 304
WIRE 224 416 208 416
WIRE 288 416 224 416
WIRE 144 448 144 384
WIRE 160 448 160 432
WIRE 160 448 144 448
WIRE 336 448 336 432
WIRE 352 448 352 384
WIRE 352 448 336 448
WIRE 160 480 160 448
WIRE 336 496 336 448
WIRE 336 624 336 576
FLAG 336 624 0
FLAG 400 -256 0
FLAG 160 480 0
SYMBOL cmosn 208 176 M0
SYMATTR InstName M1
SYMATTR Value2 l=180n w=1u
SYMBOL cmosn 288 176 R0
SYMATTR InstName M2
SYMATTR Value2 l=180n w=1u
SYMBOL cmosn 208 336 M0
SYMATTR InstName M3
SYMATTR Value2 l=180n w=1u
SYMBOL cmosn 288 336 R0
SYMATTR InstName M4
SYMATTR Value2 l=180n w=1u m=4
SYMBOL cmosp 208 -176 M0
SYMATTR InstName M5
SYMATTR Value2 l=180n w=1u
SYMBOL cmosp 288 -176 R0
SYMATTR InstName M6
SYMATTR Value2 l=180n w=1u
SYMBOL cmosp 208 -16 M0
SYMATTR InstName M7
SYMATTR Value2 l=180n w=1u
SYMBOL cmosp 288 -16 R0
SYMATTR InstName M8
SYMATTR Value2 l=180n w=1u
SYMBOL res 320 480 R0
SYMATTR InstName R1
SYMATTR Value 267k
SYMBOL voltage 400 -384 R0
WINDOW 123 0 0 Left 0
WINDOW 39 0 0 Left 0
SYMATTR InstName V1
SYMATTR Value 1.8
TEXT 1176 -408 Left 2 !.lib tsmc018.lib
TEXT 112 648 Left 2 !.tran 0 3000 1 1
